psse_raw/case14_tap_correction.raw
0,   100.00, 33, 0, 1, 60.00     / PSS(R)E 33 RAW created by rawd33  TUE, APR 01 2025  11:01


   101,'BUS 101     ', 138.0000,3,   1,   1,   1,1.00000,   0.0000,1.10000,0.90000,1.10000,0.90000
   102,'BUS 102     ', 138.0000,1,   1,   1,   1,0.99896,  -0.3055,1.10000,0.90000,1.10000,0.90000
   103,'BUS 103     ', 138.0000,1,   1,   1,   1,1.00303,  -1.7935,1.10000,0.90000,1.10000,0.90000
   104,'BUS 104     ', 138.0000,1,   1,   1,   1,0.99362,  -2.8732,1.10000,0.90000,1.10000,0.90000
   105,'BUS 105     ', 138.0000,1,   1,   1,   1,0.99362,  -2.8732,1.10000,0.90000,1.10000,0.90000
   106,'BUS 106     ', 230.0000,1,   1,   1,   1,0.99391,  -2.9039,1.10000,0.90000,1.10000,0.90000
   107,'BUS 107     ',  65.0000,1,   1,   1,   1,0.99472,  -2.8526,1.10000,0.90000,1.10000,0.90000
   108,'BUS 108     ',  65.0000,3,   1,   1,   1,1.00000,  11.7593,1.10000,0.90000,1.10000,0.90000
   109,'BUS 109     ', 500.0000,1,   1,   1,   1,0.99622,  -2.9152,1.10000,0.90000,1.10000,0.90000
   110,'BUS 110     ', 230.0000,2,   1,   1,   1,1.00000,  -2.9880,1.10000,0.90000,1.10000,0.90000
   111,'BUS 111     ', 230.0000,1,   1,   1,   1,0.98992,  -3.0358,1.10000,0.90000,1.10000,0.90000
   112,'BUS 112     ', 230.0000,1,   1,   1,   1,0.99943,  -3.0930,1.10000,0.90000,1.10000,0.90000
   113,'BUS 113     ', 230.0000,1,   1,   1,   1,0.99943,  -3.0930,1.10000,0.90000,1.10000,0.90000
   114,'BUS 114     ', 500.0000,1,   1,   1,   1,0.99964,  -3.1041,1.10000,0.90000,1.10000,0.90000
0 / END OF BUS DATA, BEGIN LOAD DATA
   101,'1 ',1,   1,   1,   200.000,   500.000,     0.000,     0.000,     0.000,     0.000,   1,1,0
   102,'1 ',1,   1,   1,   200.000,  -350.000,    20.000,     0.000,     0.000,     0.000,   1,1,0
   103,'1 ',1,   1,   1,   105.000,    65.000,     0.000,     0.000,     0.000,     0.000,   1,1,0
   104,'1 ',1,   1,   1,   500.000,   180.000,     0.000,     0.000,     0.000,     0.000,   1,1,0
   105,'1 ',1,   1,   1,   500.000,  -350.000,     0.000,     0.000,     0.000,     0.000,   1,1,0
   106,'1 ',1,   1,   1,    80.000,    20.000,     0.000,     0.000,     0.000,     0.000,   1,1,0
   109,'1 ',1,   1,   1,   300.000,   100.000,     0.000,     0.000,     0.000,     0.000,   1,1,0
   110,'1 ',1,   1,   1,   100.000,  -500.000,     0.000,     0.000,     0.000,     0.000,   1,1,0
   110,'2 ',1,   1,   1,   150.000,  -500.000,     0.000,     0.000,     0.000,     0.000,   1,1,0
   111,'1 ',1,   1,   1,   250.000,   100.000,     0.000,     0.000,     0.000,     0.000,   1,1,0
   112,'1 ',1,   1,   1,   325.000,    23.000,     0.000,     0.000,     0.000,     0.000,   1,1,0
   113,'1 ',1,   1,   1,   250.000,   100.000,     0.000,     0.000,     0.000,     0.000,   1,1,0
   114,'1 ',1,   1,   1,   500.000,  -250.000,     0.000,     0.000,     0.000,     0.000,   1,1,0
0 / END OF LOAD DATA, BEGIN FIXED SHUNT DATA
0 / END OF FIXED SHUNT DATA, BEGIN GENERATOR DATA
   101,'1 ',  2087.711, -2440.631,  9999.000, -9999.000,1.00000,     0,   100.000, 0.00000E+0, 1.00000E+0, 0.00000E+0, 0.00000E+0,1.00000,1,  100.0,  9999.000, -9999.000,   1,1.0000
   101,'2 ',  1089.240, -1273.372,  9999.000, -9999.000,1.00000,     0,   100.000, 0.00000E+0, 1.00000E+0, 0.00000E+0, 0.00000E+0,1.00000,1,  100.0,  9999.000, -9999.000,   1,1.0000
   102,'1 ',   300.000,   -50.000,  9999.000, -9999.000,1.00000,     0,   100.000, 0.00000E+0, 1.00000E+0, 0.00000E+0, 0.00000E+0,1.00000,1,  100.0,  9999.000, -9999.000,   1,1.0000
   106,'1 ',   200.000,   -50.000,  9999.000, -9999.000,1.00000,     0,   100.000, 0.00000E+0, 1.00000E+0, 0.00000E+0, 0.00000E+0,1.00000,1,  100.0,  9999.000, -9999.000,   1,1.0000
   108,'1 ',   500.094,    -4.934,  9999.000, -9999.000,1.00000,     0,   100.000, 0.00000E+0, 1.00000E+0, 0.00000E+0, 0.00000E+0,1.00000,1,  100.0,  9999.000, -9999.000,   1,1.0000
   110,'1 ',   300.000,  2726.679,  9999.000, -9999.000,1.00000,     0,   100.000, 0.00000E+0, 1.00000E+0, 0.00000E+0, 0.00000E+0,1.00000,1,  100.0,  9999.000, -9999.000,   1,1.0000
   111,'1 ',    90.000,   784.759,  9999.000, -9999.000,1.00000,     0,   100.000, 0.00000E+0, 1.00000E+0, 0.00000E+0, 0.00000E+0,1.00000,1,  100.0,  9999.000, -9999.000,   1,1.0000
0 / END OF GENERATOR DATA, BEGIN BRANCH DATA
   101,   102,'1 ', 1.25000E-4, 1.00000E-4,   0.00120,    0.00,    0.00,    0.00,  0.00000,  0.00000,  0.00000,  0.00000,1,1,   0.00,   1,1.0000
   101,   105,'1 ', 2.50000E-3, 1.00000E-4,   0.00230,    0.00,    0.00,    0.00,  0.00000,  0.00000,  0.00000,  0.00000,1,1,   0.00,   1,1.0000
   102,   103,'1 ', 1.28000E-3, 8.10000E-3,   0.00196,    0.00,    0.00,    0.00,  0.00000,  0.00000,  0.00000,  0.00000,1,1,   0.00,   1,1.0000
   102,   104,'1 ', 3.40000E-3, 4.10000E-3,   0.00026,    0.00,    0.00,    0.00,  0.00000,  0.00000,  0.00000,  0.00000,1,1,   0.00,   1,1.0000
   102,   105,'1 ', 1.88000E-3, 1.10400E-3,   0.00315,    0.00,    0.00,    0.00,  0.00000,  0.00000,  0.00000,  0.00000,1,2,   0.00,   1,1.0000
   103,   104,'1 ', 7.45000E-3, 3.15000E-3,   0.00342,    0.00,    0.00,    0.00,  0.00000,  0.00000,  0.00000,  0.00000,1,1,   0.00,   1,1.0000
   104,   105,'1 ', 0.00000E+0, 1.00000E-4,   0.00000,    0.00,    0.00,    0.00,  0.00000,  0.00000,  0.00000,  0.00000,1,2,   0.00,   1,1.0000
   106,   105,'1 ', 0.00000E+0, 1.00000E-4,   0.00024,    0.00,    0.00,    0.00,  0.00000,  0.00000,  0.00000,  0.00000,1,2,   0.00,   1,1.0000
   106,   111,'1 ', 1.34000E-3, 1.34500E-4,   0.00024,    0.00,    0.00,    0.00,  0.00000,  0.00000,  0.00000,  0.00000,1,2,   0.00,   1,1.0000
   106,   112,'1 ', 1.45600E-3, 4.10000E-3,   0.00734,    0.00,    0.00,    0.00,  0.00000,  0.00000,  0.00000,  0.00000,1,2,   0.00,   1,1.0000
   107,   108,'1 ', 7.98000E-3, 5.01000E-2,   0.00056,    0.00,    0.00,    0.00,  0.00000,  0.00000,  0.00000,  0.00000,1,1,   0.00,   1,1.0000
   109,   104,'1 ', 0.00000E+0, 1.00000E-4,   0.00534,    0.00,    0.00,    0.00,  0.00000,  0.00000,  0.00000,  0.00000,1,2,   0.00,   1,1.0000
   109,   114,'1 ', 1.23000E-3, 1.60000E-4,   0.00534,    0.00,    0.00,    0.00,  0.00000,  0.00000,  0.00000,  0.00000,1,2,   0.00,   1,1.0000
   110,   109,'1 ', 0.00000E+0, 1.00000E-4,   0.00502,    0.00,    0.00,    0.00,  0.00000,  0.00000,  0.00000,  0.00000,1,1,   0.00,   1,1.0000
   110,   111,'1 ', 3.56000E-3, 2.41000E-2,   0.00502,    0.00,    0.00,    0.00,  0.00000,  0.00000,  0.00000,  0.00000,1,1,   0.00,   1,1.0000
   112,   113,'1 ', 0.00000E+0, 1.00000E-4,   0.00000,    0.00,    0.00,    0.00,  0.00000,  0.00000,  0.00000,  0.00000,1,1,   0.00,   1,1.0000
0 / END OF BRANCH DATA, BEGIN TRANSFORMER DATA
	104,     107,    0,'1 ',1,1,1,0.00000E0,0.00000E0,2,'            ',1,   1,1.0000,   0,1.0000,   0,1.0000,   0,1.0000,'            '
	 1.00000E-7,2.09120E-1, 100.00
	0.978000,138.000,   0.000,   0.00,   0.00,   0.00,-1,     0,1.500000,0.510000,1.500000,0.510000,159, 0, 0.00000, 0.00000,  0.000
	1.000000,138.000
   109,   104,   107,'1 ',1,1,1, 0.00000E+0, 0.00000E+0,2,'TRAFO 3W 2  ',1,   1,1.0000,   0,1.0000,   0,1.0000,   0,1.0000,'            '
 0.00000E+0, 2.00000E-4,   100.00, 0.00000E+0, 2.00000E-4,   100.00, 0.00000E+0, 2.00000E-4,   100.00,0.99485,  -2.8803
0.98539,   0.000,   0.000,     0.00,     0.00,     0.00,-1,      0, 1.10000, 0.90000, 1.10000, 0.90000,  33, 0, 0.00000, 0.00000,  0.000
0.97519,   0.000,   0.000,     0.00,     0.00,     0.00, 1,      0, 1.10000, 0.90000, 1.10000, 0.90000,  33, 0, 0.00000, 0.00000,  0.000
0.96529,   0.000,   0.000,     0.00,     0.00,     0.00, 2,      0, 1.10000, 0.90000, 1.10000, 0.90000,  33, 0, 0.00000, 0.00000,  0.000
0 / END OF TRANSFORMER DATA, BEGIN AREA DATA
0 / END OF AREA DATA, BEGIN TWO-TERMINAL DC DATA
0 / END OF TWO-TERMINAL DC DATA, BEGIN VSC DC LINE DATA
0 / END OF VSC DC LINE DATA, BEGIN IMPEDANCE CORRECTION DATA
0 / END OF IMPEDANCE CORRECTION DATA, BEGIN MULTI-TERMINAL DC DATA
0 / END OF MULTI-TERMINAL DC DATA, BEGIN MULTI-SECTION LINE DATA
0 / END OF MULTI-SECTION LINE DATA, BEGIN ZONE DATA
0 / END OF ZONE DATA, BEGIN INTER-AREA TRANSFER DATA
0 / END OF INTER-AREA TRANSFER DATA, BEGIN OWNER DATA
0 / END OF OWNER DATA, BEGIN FACTS DEVICE DATA
0 / END OF FACTS DEVICE DATA, BEGIN SWITCHED SHUNT DATA
0 / END OF SWITCHED SHUNT DATA, BEGIN GNE DATA
0 / END OF GNE DATA, BEGIN INDUCTION MACHINE DATA
0 / END OF INDUCTION MACHINE DATA
Q
